Grid_data.txt
Line	Bus_1	Bus_2	Resistance_(Ohm)	Reactance_(Ohm)	Capacity_Limit_(VA)
1	1	2	4.5	                9	        500000000
2	1	3	2.25	                6.75	        500000000
3	2	3	2.8125	                5.625	        500000000
4	2	4	4.5	                9	        500000000
5	3	4	4.5	                9	        500000000
6	3	5	4.5	                9	        500000000
7       2       5       2.25                    6.75            500000000


